1 'GENCLS'  1     3.0000      2.000000 /
2 'GENCLS'  1     3.0000      2.000000 /
3 'GENCLS'  1     3.0000      2.000000 /
 
 
    